  14
        -13.66579521
 C         -1.9399008142        0.1188639501        0.0000006374
 C         -0.5571169455       -0.5221321523       -0.0000039992
 C          0.5571169518        0.5221321816        0.0000040161
 C          1.9399008070       -0.1188639740       -0.0000006539
 H          2.7158753881        0.6430615337       -0.0002964621
 H          2.0709594591       -0.7424061368        0.8818462611
 H          2.0707082957       -0.7428156379       -0.8815904029
 H          0.4522341170        1.1589675775       -0.8816257591
 H          0.4522690892        1.1589248156        0.8816664879
 H         -0.4522341394       -1.1589675291        0.8816257917
 H         -0.4522690871       -1.1589248047       -0.8816664564
 H         -2.7158753923       -0.6430615695        0.0002969268
 H         -2.0709596118        0.7424057237       -0.8818465301
 H         -2.0707081148        0.7428160019        0.8815901411
  14
        -13.66479066
 C         -1.5670887651        0.5441387550        0.1271775493
 C         -0.6926107392       -0.6204209503       -0.3241666360
 C          0.6926172875       -0.6203755426        0.3241703885
 C          1.5670908517        0.5441307119       -0.1272119467
 H          1.1434381382        1.4946789328        0.1857087573
 H          2.5615404563        0.4584794856        0.3050389879
 H          1.6634394698        0.5489381637       -1.2109726007
 H          0.5803272560       -0.5897386947        1.4105286646
 H          1.1954987877       -1.5570536993        0.0708886979
 H         -1.1954500229       -1.5570848246       -0.0707530953
 H         -0.5803630912       -0.5899013412       -1.4105279776
 H         -1.1453184045        1.4945416028       -0.1888042101
 H         -1.6605015678        0.5510676150        1.2112172469
 H         -2.5626512435        0.4565538800       -0.3021817244
