%nprocshared=28
%mem=500MB
#n test B3LYP/6-31+G** integral=(grid=UltraFine)
#opt=(maxcycles=80,tight,Z-Matrix)

L-cysteine neutral

0  1
C
O  1  r2
O  1  r3  2  a3
H  2  r4  1  a4  3  d4
C  1  r5  2  a5  3  d5
H  5  r6  1  a6  2  d6
C  5  r7  1  a7  2  d7
N  5  r8  1  a8  2  d8
H  7  r9  5  a9  1  d9
S  7  r10  5  a10  1  d10
H  7  r11  5  a11  1  d11
H  8  r12  5  a12  1  d12
H  8  r13  5  a13  1  d13
H  10  r14  7  a14  5  d14
Variables:
r2= 1.3066
r3= 1.2141
a3= 122.23
r4= 0.9754
a4= 106.20
d4= 178.10
r5= 1.5236
a5= 113.47
d5= 177.02
r6= 1.0936
a6= 105.94
d6= 278.29
r7= 1.5453
a7= 112.17
d7= 160.05
r8= 1.4779
a8= 112.00
d8=  36.27
r9= 1.0935
a9= 109.36
d9=  56.11
r10= 1.8276
a10= 113.78
d10= 294.79
r11= 1.0932
a11= 109.07
d11= 174.04
r12= 1.0179
a12= 109.91
d12= 180.65
r13= 1.0189
a13= 109.37
d13=  63.46
r14= 1.3384
a14=  96.27
d14=  61.39
