%chk=MethylPyrrolidine_drawn.chk
%mem=6MW
%nproc=1
# opt b3lyp/6-311+g(d,p) geom=connectivity

Title Card Required

-1 2
 C
 C                  1              B1
 C                  2              B2    1              A1
 C                  1              B3    2              A2    3              D1
 H                  1              B4    2              A3    3              D2
 H                  1              B5    2              A4    3              D3
 H                  2              B6    1              A5    4              D4
 H                  2              B7    1              A6    4              D5
 H                  3              B8    2              A7    1              D6
 H                  3              B9    2              A8    1              D7
 H                  4             B10    1              A9    2              D8
 H                  4             B11    1             A10    2              D9
 N                  3             B12    2             A11    1             D10
 C                 13             B13    3             A12    2             D11
 H                 14             B14   13             A13    3             D12
 H                 14             B15   13             A14    3             D13
 H                 14             B16   13             A15    3             D14

   B1             1.52185800
   B2             1.52186109
   B3             1.52215158
   B4             1.11888076
   B5             1.11910231
   B6             1.11925901
   B7             1.11868016
   B8             1.11921344
   B9             1.11868456
   B10            1.11901436
   B11            1.11893968
   B12            1.52197741
   B13            1.47000000
   B14            1.07000000
   B15            1.07000000
   B16            1.07000000
   A1           107.94031680
   A2           107.95390884
   A3           110.50665345
   A4           110.40148675
   A5           110.31725655
   A6           110.58734633
   A7           110.33290785
   A8           110.59848868
   A9           110.41103195
   A10          110.48629338
   A11          107.91382637
   A12          110.38644140
   A13          109.47120255
   A14          109.47120255
   A15          109.47123134
   D1             4.10236229
   D2           125.09008254
   D3          -116.64610589
   D4          -116.51641760
   D5           125.18949485
   D6           115.32857214
   D7          -126.36690444
   D8          -122.22959184
   D9           119.50131823
   D10           -5.27678136
   D11         -116.26094245
   D12          179.62840326
   D13          -60.37158195
   D14           59.62841065

 1 2 1.0 4 1.0 5 1.0 6 1.0
 2 3 1.0 7 1.0 8 1.0
 3 9 1.0 10 1.0 13 1.0
 4 11 1.0 12 1.0 13 1.0
 5
 6
 7
 8
 9
 10
 11
 12
 13 14 1.0
 14 15 1.0 16 1.0 17 1.0
 15
 16
 17

