          14
 energy: -13.665795190514 gnorm: 0.000073661570 xtb: 6.2.2 (655bc02)   !md2
C          -1.93871796912906    0.13376610137747   -0.00013649243434
C          -0.56102903005006   -0.51798595305800   -0.00055053680278
C           0.56101263457826    0.51795021945868    0.00000360212082
C           1.93868076596068   -0.13380816609034   -0.00000197059260
H           2.06452617610156   -0.75910145479108   -0.88136907663457
H           2.72040986627980    0.62219407899508   -0.00066902444686
H           2.06502454043788   -0.75791898088968    0.88216451276921
H           0.46135953386851    1.15587212667629   -0.88143115743900
H           0.46112221754039    1.15524101199399    0.88187064278656
H          -0.46124725898647   -1.15609188987982    0.88077787479518
H          -0.46123546516478   -1.15509320970442   -0.88260977324914
H          -2.06571062019296    0.75590589098360    0.88328702758016
H          -2.72045293571936   -0.62217749927327   -0.00310739596270
H          -2.06385756552437    0.76103525420150   -0.88015714248995
          14
 energy: -13.665795113211 gnorm: 0.000050379657 xtb: 6.2.2 (655bc02)   !md2
C          -1.93865099148695    0.13371335695819   -0.00132803495410
C          -0.56092735016949   -0.51792837844336    0.00169455058541
C           0.56100615028183    0.51810669267762    0.00074749295378
C           1.93870944601218   -0.13361040495443   -0.00165717591399
H           2.72045038602663    0.62235882896502   -0.00150668105708
H           2.06577833062705   -0.75959421696819    0.87907954654636
H           2.06377524223345   -0.75713104688827   -0.88440354288971
H           0.45994567619084    1.15615608942163   -0.88046104390724
H           0.46234448511885    1.15528577447767    0.88286406376230
H          -0.46203811948083   -1.15368805281926    0.88480807636921
H          -0.46011263816777   -1.15741577397782   -0.87849640348336
H          -2.06522822611148    0.76167192665484    0.87804410483457
H          -2.72037960345882   -0.62231064827419    0.00099224463881
H          -2.06426779761549    0.75517148317054   -0.88543782748497
          14
 energy: -13.665795207432 gnorm: 0.000037901907 xtb: 6.2.2 (655bc02)   !md2
C           1.93875770421668   -0.13372181621189    0.00040773304425
C           0.56103140638717    0.51791813123692   -0.00020024001508
C          -0.56103976434418   -0.51798100873233   -0.00058043742238
C          -1.93875799335064    0.13367572963540    0.00036264524406
H          -2.06443700212380    0.76044009761653   -0.87999883666871
H          -2.72054293210921   -0.62228619208765   -0.00174416348697
H          -2.06522661131151    0.75636174430672    0.88349342112719
H          -0.46146513994816   -1.15482618370219   -0.88282410416076
H          -0.46094683510205   -1.15638928505979    0.88048341349591
H           0.46089628610391    1.15566623609520    0.88132619424526
H           0.46150590014382    1.15543065169530   -0.88198134145586
H           2.06448422570703   -0.75980068224620   -0.88043099561859
H           2.06518013425318   -0.75704774843770    0.88309083405217
H           2.72050575147775    0.62229075589168   -0.00109782238046
          14
 energy: -13.665795151905 gnorm: 0.000040352749 xtb: 6.2.2 (655bc02)   !md2
C           1.93872612649523    0.13376816616330   -0.00119442345400
C           0.56101728592031   -0.51792309862152    0.00132527484298
C          -0.56103625967377    0.51801204077673    0.00088622997325
C          -1.93872903981591   -0.13371140948599   -0.00129776124406
H          -2.06386317004103   -0.75737668103788   -0.88393971269232
H          -2.06569309443815   -0.75954934705133    0.87953910592460
H          -2.72052593412372    0.62224103099840   -0.00117768283042
H          -0.46224796843004    1.15493886512080    0.88315705128035
H          -0.46023073095786    1.15632270433464   -0.88015166695022
H           0.46028314802753   -1.15689567308761   -0.87925933662234
H           0.46213742266596   -1.15420000216775    0.88406395894640
H           2.06513882704211    0.76116087063506    0.87857649729345
H           2.06446548843424    0.75576814188749   -0.88487992660611
H           2.72048021889507   -0.62218949846435    0.00083123213845
          14
 energy: -13.665795213409 gnorm: 0.000114778330 xtb: 6.2.2 (655bc02)   !input
C           1.93892592239341   -0.13382856545493   -0.00001554257664
C           0.56112910178666    0.51781792564851    0.00003621807313
C          -0.56112910364466   -0.51781796213045   -0.00003619951441
C          -1.93892591033548    0.13382858212111    0.00001552780159
H          -2.72075636137556   -0.62208684782821   -0.00033909239347
H          -2.06516700063621    0.75829227881320    0.88191317445836
H          -2.06491758200658    0.75884209401016   -0.88152345163034
H          -0.46116562054522   -1.15537254270138   -0.88171768956924
H          -0.46119536519739   -1.15547176485419    0.88157455530354
H           0.46116564726252    1.15537248690675    0.88171772380020
H           0.46119536767780    1.15547174681041   -0.88157452209540
H           2.72075637054526    0.62208687636818    0.00033955872975
H           2.06516716115106   -0.75829187396083   -0.88191344182164
H           2.06491740292438   -0.75884246374833    0.88152319143456
          14
 energy: -13.665795202884 gnorm: 0.000100722956 xtb: 6.2.2 (655bc02)   !mtd10
C          -1.93858817792768   -0.13387961254755   -0.00001358855348
C          -0.56096740257299    0.51803245378239   -0.00014961936268
C           0.56094913478884   -0.51800861866145    0.00000944262641
C           1.93856657171097    0.13386850741473    0.00008702109107
H           2.06444440931624    0.75909777941291   -0.88133702556031
H           2.06482017244051    0.75806590511959    0.88218097673176
H           2.72030986114300   -0.62211973400600   -0.00051999465083
H           0.46103663947346   -1.15562793293693    0.88165639120932
H           0.46119157572368   -1.15563645023027   -0.88164662958500
H          -0.46114384695825    1.15551714455524   -0.88189980902524
H          -0.46103893944352    1.15581876335901    0.88136836360208
H          -2.06401486948180   -0.76024726642209   -0.88070149210165
H          -2.72034151700601    0.62210978407558   -0.00199239554061
H          -2.06531097120646   -0.75697538291517    0.88279325911915
          14
 energy: -13.665795198972 gnorm: 0.000058919556 xtb: 6.2.2 (655bc02)   !mtd1
C           1.93877179971586   -0.13374438441937    0.00056328364449
C           0.56104211630316    0.51793379876063   -0.00046979451315
C          -0.56105164595119   -0.51792728444525   -0.00072346250745
C          -1.93877441716824    0.13374800733129    0.00056956738773
H          -2.72055263531061   -0.62222938623317   -0.00161826918867
H          -2.06517119279857    0.75628719007069    0.88382165201189
H          -2.06446954256874    0.76065518717782   -0.87967734953494
H          -0.46163887547892   -1.15495949381968   -0.88286457007028
H          -0.46078405339093   -1.15612018351635    0.88045676579992
H           0.46073812359938    1.15592182052274    0.88086988846902
H           0.46164439102620    1.15517691456410   -0.88244424892962
H           2.06484600531547   -0.75972164585925   -0.88029330881743
H           2.06481209252526   -0.75722620656733    0.88319438274386
H           2.72055913418186    0.62222574643312   -0.00049571649536
          14
 energy: -13.665795153600 gnorm: 0.000154052330 xtb: 6.2.2 (655bc02)   !mtd12
C           1.93846169312014   -0.13379554580731   -0.00052848685499
C           0.56088031882356    0.51813081287575    0.00057704993806
C          -0.56088018433717   -0.51811112007122    0.00048388816508
C          -1.93846592331170    0.13379253856054   -0.00053695144265
H          -2.06473525259868    0.75955788845582    0.88046024434637
H          -2.06429959423181    0.75745503391050   -0.88306992463770
H          -2.72019482576935   -0.62221355425221    0.00015551253981
H          -0.46060489864192   -1.15620529522891   -0.88080298676808
H          -0.46158409760478   -1.15526381077956    0.88255218458658
H           0.46157101331227    1.15518191020592    0.88272071890555
H           0.46061177730990    1.15632218916658   -0.88063829997845
H           2.72019201608199    0.62220298163715    0.00088652502439
H           2.06454446380097   -0.75688397730928   -0.88343198415802
H           2.06449407404657   -0.76013465136377    0.88008928033403
          14
 energy: -13.665795185393 gnorm: 0.000026986858 xtb: 6.2.2 (655bc02)   !mtd9
C          -1.93874164208739    0.13374525363138   -0.00106039594280
C          -0.56103447904505   -0.51795582373170    0.00089527919315
C           0.56103345862534    0.51795220208151    0.00121699098315
C           1.93874671159424   -0.13375006410258   -0.00107499101167
H           2.06396381516623   -0.75695165437212   -0.88401985787913
H           2.72053068439961    0.62222044377244   -0.00055037167534
H           2.06563926725800   -0.76000015127722    0.87947424678348
H           0.46036408229995    1.15668472482044   -0.87953323840220
H           0.46206880533219    1.15447371572918    0.88376926685611
H          -0.46210859238831   -1.15491384176619    0.88313114624695
H          -0.46033466266950   -1.15624615593780   -0.88017770151000
H          -2.72052204181559   -0.62222228251084   -0.00142094698591
H          -2.06374775316184    0.75774547483730   -0.88345869278878
H          -2.06584943350787    0.75919989882618    0.88001943613297
          14
 energy: -13.664790632468 gnorm: 0.000100938258 xtb: 6.2.2 (655bc02)   !md4
C           1.56689251000000   -0.56297978000000   -0.13406201000000
C           0.69373750000000    0.60084558000000    0.32163030000000
C          -0.69384402000000    0.60090365000000   -0.32158753000000
C          -1.56679866000000   -0.56309515000000    0.13403690000000
H          -1.14513236000000   -1.51401512000000   -0.18031363000000
H          -1.65855214000000   -0.56745180000000    1.21819135000000
H          -2.56306277000000   -0.47695908000000   -0.29393886000000
H          -1.19545820000000    1.53792277000000   -0.06709772000000
H          -0.58541599000000    0.56947972000000   -1.40832253000000
H           0.58546208000000    0.56944050000000    1.40835284000000
H           1.19518147000000    1.53791385000000    0.06709066000000
H           2.56304074000000   -0.47711375000000    0.29421453000000
H           1.65894337000000   -0.56694032000000   -1.21816868000000
H           1.14514492000000   -1.51407653000000    0.17978156000000
          14
 energy: -13.664790607028 gnorm: 0.000058784965 xtb: 6.2.2 (655bc02)   !md4
C           1.56717637056558    0.56287933920237    0.13369044817736
C           0.69366405198346   -0.60069542837146   -0.32196952292002
C          -0.69356755631903   -0.60072246482601    0.32205256553927
C          -1.56736822311542    0.56253322954239   -0.13384333023264
H          -1.65972326104053    0.56602939510067   -1.21793497312860
H          -2.56332735131396    0.47667580939350    0.29481040337549
H          -1.14563772954653    1.51378829492023    0.17942472232237
H          -1.19505335551801   -1.53808281572128    0.06861505065625
H          -0.58464619747957   -0.56843059018689    1.40869014551145
H           0.58474834935366   -0.56870637685440   -1.40860371791813
H           1.19534349887335   -1.53786752350669   -0.06827523682186
H           2.56321784793357    0.47699455771828   -0.29489142296894
H           1.65949751693798    0.56665050043363    1.21783362094846
H           1.14532465868545    1.51403284315567   -0.17986023254045
          14
 energy: -13.664790652796 gnorm: 0.000035212831 xtb: 6.2.2 (655bc02)   !md2
C          -1.56631783849098   -0.56343564723805   -0.13411909860650
C          -0.69410781292446    0.60122423810849    0.32124900438954
C           0.69405619945987    0.60146555269620   -0.32072767159756
C           1.56626974591432   -0.56352431713329    0.13387750852066
H           2.56384108570994   -0.47563931070089   -0.29067631666736
H           1.65453152569525   -0.57131161803271    1.21828566603279
H           1.14600533610806   -1.51362636314828   -0.18488860321648
H           0.58674612770038    0.57172291128106   -1.40760615344870
H           1.19584427042539    1.53788333172955   -0.06439028623900
H          -1.19590889553742    1.53784889712536    0.06565593668222
H          -0.58676777439572    0.57064439282310    1.40809445176106
H          -1.65762461009282   -0.56834098109212   -1.21830896734487
H          -2.56277862088524   -0.47791594927563    0.29349481399972
H          -1.14396360868656   -1.51390541714279    0.18078763573449
          14
 energy: -13.664790570608 gnorm: 0.000067143458 xtb: 6.2.2 (655bc02)   !md4
C          -1.56715166520318    0.56277155599437    0.13401095382936
C          -0.69383341022979   -0.60084691068790   -0.32188393934017
C           0.69379852494837   -0.60083667283792    0.32130909853914
C           1.56710593911079    0.56311580345201   -0.13379877882183
H           1.14574453182954    1.51392409672981    0.18137538138465
H           2.56353860405605    0.47659558694351    0.29370948576432
H           1.65830202668272    0.56818524058610   -1.21800702656744
H           0.58540150618819   -0.56963734108976    1.40801411165211
H           1.19550002667528   -1.53777586495392    0.06670868225367
H          -1.19541316624503   -1.53800000841661   -0.06781010388627
H          -0.58547763930849   -0.56899364767718   -1.40858329431406
H          -2.56261696980092    0.47816323149356   -0.29613511818655
H          -1.14413473295323    1.51398114146908   -0.17773448001657
H          -1.66099473575029    0.56521251899486    1.21799267770963
          14
 energy: -13.664790655638 gnorm: 0.000044079227 xtb: 6.2.2 (655bc02)   !md4
C          -1.56657083974749    0.56321742661536    0.13391235232983
C          -0.69398808053729   -0.60135926408560   -0.32104166548632
C           0.69406382515956   -0.60109146495286    0.32122729730173
C           1.56646554002281    0.56339775125840   -0.13419004636777
H           1.14411423875248    1.51397143284851    0.18040805134215
H           2.56280365585071    0.47790011087850    0.29372061207923
H           1.65807028929951    0.56801421449026   -1.21836280985505
H           0.58652649780381   -0.57026434888612    1.40806094776073
H           1.19590308665559   -1.53777823734138    0.06591839929957
H          -1.19564265209483   -1.53801445888829   -0.06525910484116
H          -0.58649778197803   -0.57102992817329   -1.40788936072268
H          -1.14625925676068    1.51359407570409   -0.18408557295528
H          -1.65523946955068    0.57033754600283    1.21834916688133
H          -2.56399604287547    0.47547941452959   -0.29107017676632
          14
 energy: -13.664790590097 gnorm: 0.000058585038 xtb: 6.2.2 (655bc02)   !md4
C           1.56480080291409   -0.56485276008469    0.13719630845098
C           0.69524806506489    0.60070214834380   -0.32094406678582
C          -0.69453003698438    0.60289862978852    0.31752902698618
C          -1.56556220898213   -0.56375082819124   -0.13496126812045
H          -1.65160799680837   -0.57524997116879   -1.21954100285674
H          -1.14557038755691   -1.51261016893117    0.18789279989291
H          -2.56402416584510   -0.47477254117145    0.28728740205179
H          -0.58992901961389    0.57698270407554    1.40477078839393
H          -1.19573033455538    1.53837353307905    0.05664673936722
H           1.19747124803332    1.53687484861487   -0.06449645127691
H           0.59070181631394    0.56969305015309   -1.40805499344124
H           1.14464479187147   -1.51470810240645   -0.18254305850490
H           1.64936704992114   -0.57217429415380    1.22190185935429
H           2.56386632622732   -0.47817082794728   -0.28406415351124
          14
 energy: -13.664790495232 gnorm: 0.000037531442 xtb: 6.2.2 (655bc02)   !md2
C           1.56783845754914   -0.56250204824544   -0.13261942332683
C           0.69325339417980    0.60049076478170    0.32249893039193
C          -0.69323167152646    0.60001636825907   -0.32312216094911
C          -1.56770159302713   -0.56264361681306    0.13302793116574
H          -1.66139015836647   -0.56483733985049    1.21703371177168
H          -2.56317066376098   -0.47702761383615   -0.29689909158397
H          -1.14577180676292   -1.51437543309796   -0.17863665090607
H          -1.19488023877519    1.53770535582431   -0.07121376187680
H          -0.58306561673640    0.56657830710617   -1.40960237919708
H           0.58311994140631    0.56806739749014    1.40901490090675
H           1.19479517290208    1.53799036012936    0.06967165332028
H           1.14583174227069   -1.51400626464724    0.17962720801098
H           2.56315790865757   -0.47653181375467    0.29756528578266
H           1.66186707198996   -0.56548174334574   -1.21659968351016
          14
 energy: -13.664790607632 gnorm: 0.000139752482 xtb: 6.2.2 (655bc02)   !md4
C          -1.56574468000000    0.56380786000000    0.13386576000000
C          -0.69421959000000   -0.60169050000000   -0.32061556000000
C           0.69434425000000   -0.60182019000000    0.32055011000000
C           1.56563645000000    0.56393991000000   -0.13381299000000
H           2.56290813000000    0.47726609000000    0.29169520000000
H           1.65490337000000    0.57148488000000   -1.21818252000000
H           1.14402745000000    1.51367935000000    0.18430228000000
H           0.58781985000000   -0.57309609000000    1.40756740000000
H           1.19635987000000   -1.53780014000000    0.06297183000000
H          -1.19611962000000   -1.53779918000000   -0.06334337000000
H          -0.58770132000000   -0.57253523000000   -1.40760283000000
H          -2.56308875000000    0.47662600000000   -0.29109405000000
H          -1.14465027000000    1.51372399000000   -0.18445368000000
H          -1.65465462000000    0.57130614000000    1.21829090000000
          14
 energy: -13.664790580969 gnorm: 0.000060839024 xtb: 6.2.2 (655bc02)   !md3
C           1.56546048145334   -0.56409971807980   -0.13417395983363
C           0.69449379087105    0.60188257780297    0.32022235715932
C          -0.69434208495617    0.60197125338874   -0.32026491797745
C          -1.56541231107536   -0.56398760315107    0.13403676337511
H          -2.56388303992805   -0.47553344055563   -0.28831325317092
H          -1.14561782774379   -1.51342720147068   -0.18729950587246
H          -1.65145309605243   -0.57373688006837    1.21862111647469
H          -1.19628113751065    1.53786225889613   -0.06235971679474
H          -0.58828494588655    0.57344458055424   -1.40728194464162
H           0.58825398703381    0.57314493117523    1.40723771766996
H           1.19655167453597    1.53781991837568    0.06259267035902
H           1.65313763220759   -0.57267097894682   -1.21860185191436
H           1.14440933610250   -1.51356973888587    0.18539294266407
H           2.56337106094874   -0.47685354903476    0.28980765250301
          14
 energy: -13.664790275979 gnorm: 0.000050618210 xtb: 6.2.2 (655bc02)   !md2
C           1.56832745207449   -0.56212293792402   -0.13361057741923
C           0.69322844945737    0.59999495200701    0.32274093494039
C          -0.69323118145518    0.59989336285490   -0.32300034579332
C          -1.56826865943441   -0.56211696793006    0.13373075749712
H          -2.56292247231010   -0.47757652398200   -0.29821224778416
H          -1.14549668234136   -1.51428292531173   -0.17536044983050
H          -1.66398590939880   -0.56233318362324    1.21755690531828
H          -1.19457056069314    1.53786033548501   -0.07153123357581
H          -0.58305768251053    0.56599138320255   -1.40946724597473
H           0.58293373507719    0.56625014558374    1.40918157780072
H           1.19453798177607    1.53791548373020    0.07113600788375
H           1.14565874118683   -1.51428590248739    0.17573054435978
H           2.56299232017836   -0.47739014840409    0.29832247615924
H           1.66401417839319   -0.56262410320088   -1.21742877358152
          14
 energy: -13.664790633776 gnorm: 0.000034663992 xtb: 6.2.2 (655bc02)   !md4
C          -1.56615822842679    0.56356171353305    0.13382200658074
C          -0.69414549559911   -0.60167032015669   -0.32052211168089
C           0.69416053911058   -0.60127614263128    0.32113164000930
C           1.56604115712466    0.56363459404759   -0.13420549872156
H           1.65692081943114    0.56895983096191   -1.21843983381187
H           1.14372364546832    1.51391709869846    0.18128012402532
H           2.56272987809580    0.47803473431769    0.29292389300292
H           0.58705317609211   -0.57104860580014    1.40801155394836
H           1.19610940575972   -1.53769530236789    0.06514888035791
H          -1.19589953818042   -1.53798656994454   -0.06372564807528
H          -0.58706147645629   -0.57232511203935   -1.40742401420008
H          -2.56404178364024    0.47535193621990   -0.28992418679884
H          -1.14614473972427    1.51346083145815   -0.18588243071051
H          -1.65364868905521    0.57212864370314    1.21829641607449
          14
 energy: -13.664790531669 gnorm: 0.000044684745 xtb: 6.2.2 (655bc02)   !md2
C           1.56750861136284   -0.56253991040039   -0.13392285770696
C           0.69357189998822    0.60053364803609    0.32212364617312
C          -0.69358512460468    0.60050528055396   -0.32207971481396
C          -1.56746876419337   -0.56264364046641    0.13390906076279
H          -1.66127298745107   -0.56502121876167    1.21788104422624
H          -2.56292081261093   -0.47759476830646   -0.29613095939330
H          -1.14496575587258   -1.51409146181845   -0.17779400055503
H          -1.19511276280282    1.53792284423071   -0.06890317877239
H          -0.58450112627756    0.56796807470689   -1.40868670923041
H           0.58450798026449    0.56799054376255    1.40873923444539
H           1.19509949015111    1.53793723275306    0.06889861940685
H           1.66088883962793   -0.56514560524595   -1.21796369873188
H           1.14520961850105   -1.51395529775105    0.17823322753942
H           2.56309780391736   -0.47714233129289    0.29580393665013
          14
 energy: -13.664790318634 gnorm: 0.000027759982 xtb: 6.2.2 (655bc02)   !md4
C           1.56844275209251    0.56206357715930   -0.13126751533121
C           0.69277228563236   -0.59996914308614    0.32420004218027
C          -0.69266400768105   -0.60034391966641   -0.32368769383256
C          -1.56848502987561    0.56195069778963    0.13081633880609
H          -2.56267166073963    0.47662756085685   -0.30211579947605
H          -1.66538975344092    0.56324425882918    1.21453457556664
H          -1.14568657290322    1.51396122202178   -0.17880110197455
H          -0.58071553518331   -0.56709720556263   -1.40998801996288
H          -1.19433616219547   -1.53818551160325   -0.07239599601297
H           1.19456878783537   -1.53794834117744    0.07367680178331
H           0.58082278607153   -0.56583731157259    1.41047414448378
H           1.14611500786776    1.51422401409836    0.17853306628925
H           1.66441597127712    0.56311778464664   -1.21506361718738
H           2.56298060124257    0.47661597726672    0.30082284466827
          14
 energy: -13.664790382308 gnorm: 0.000127676022 xtb: 6.2.2 (655bc02)   !md4
C          -1.56682017000000   -0.56308483000000    0.13402252000000
C          -0.69388063000000    0.60091508000000   -0.32148217000000
C           0.69383253000000    0.60090744000000    0.32150541000000
C           1.56686413000000   -0.56304259000000   -0.13403416000000
H           2.56361076000000   -0.47603899000000    0.29245254000000
H           1.14607390000000   -1.51382145000000    0.18197284000000
H           1.65707447000000   -0.56853356000000   -1.21830057000000
H           1.19546941000000    1.53781710000000    0.06663467000000
H           0.58592414000000    0.56963496000000    1.40828912000000
H          -0.58573230000000    0.56953829000000   -1.40820412000000
H          -1.19558590000000    1.53786998000000   -0.06685723000000
H          -2.56170639000000   -0.47953800000000   -0.29775646000000
H          -1.66246344000000   -0.56462139000000    1.21789465000000
H          -1.14261528000000   -1.51435465000000   -0.17626366000000
          14
 energy: -13.664789732755 gnorm: 0.000070723702 xtb: 6.2.2 (655bc02)   !md4
C           1.56347407000000    0.56537434000000    0.13348693000000
C           0.69511877000000   -0.60335150000000   -0.31872231000000
C          -0.69511516000000   -0.60339318000000    0.31871940000000
C          -1.56346646000000    0.56538040000000   -0.13346672000000
H          -1.14418951000000    1.51290137000000    0.19413584000000
H          -1.64526390000000    0.58048258000000   -1.21829818000000
H          -2.56356652000000    0.47573445000000    0.28458486000000
H          -1.19766316000000   -1.53782344000000    0.05655829000000
H          -0.59148217000000   -0.57856721000000    1.40609021000000
H           0.59136306000000   -0.57838091000000   -1.40610090000000
H           1.19773627000000   -1.53778983000000   -0.05673207000000
H           1.64790701000000    0.57853696000000    1.21815070000000
H           1.14237795000000    1.51304807000000   -0.19133086000000
H           2.56264730000000    0.47741933000000   -0.28726406000000
          14
 energy: -13.664789327130 gnorm: 0.000060389099 xtb: 6.2.2 (655bc02)   !gc
C           1.56288156000000   -0.56573971000000    0.13340313000000
C           0.69526010000000    0.60379938000000   -0.31828076000000
C          -0.69537458000000    0.60385565000000    0.31825098000000
C          -1.56277317000000   -0.56585393000000   -0.13337492000000
H          -1.64360247000000   -0.58222067000000   -1.21828504000000
H          -1.14318116000000   -1.51272206000000    0.19574802000000
H          -2.56331888000000   -0.47626225000000    0.28376500000000
H          -0.59223551000000    0.58005122000000    1.40568104000000
H          -1.19827262000000    1.53780866000000    0.05505496000000
H           1.19804436000000    1.53783036000000   -0.05516802000000
H           0.59212695000000    0.57990199000000   -1.40571002000000
H           1.64406559000000   -0.58176624000000    1.21827958000000
H           2.56330022000000   -0.47634188000000   -0.28408384000000
H           1.14314599000000   -1.51269179000000   -0.19526296000000
          14
 energy: -13.664789794187 gnorm: 0.000154069371 xtb: 6.2.2 (655bc02)   !gc
C           1.56861538000000   -0.56213833000000    0.13416301000000
C           0.69351911000000    0.59986023000000   -0.32252962000000
C          -0.69325608000000    0.59972897000000    0.32260805000000
C          -1.56887048000000   -0.56188865000000   -0.13422514000000
H          -1.14619529000000   -1.51426340000000    0.17447115000000
H          -2.56346781000000   -0.47744049000000    0.29801533000000
H          -1.66483288000000   -0.56177630000000   -1.21805343000000
H          -0.58330550000000    0.56593062000000    1.40908811000000
H          -1.19418840000000    1.53786150000000    0.07103080000000
H           1.19492442000000    1.53777469000000   -0.07093516000000
H           0.58358433000000    0.56608792000000   -1.40900277000000
H           1.66788768000000   -0.55991310000000    1.21767519000000
H           2.56199352000000   -0.48025804000000   -0.30130741000000
H           1.14350541000000   -1.51446748000000   -0.17117607000000
          14
 energy: -13.664790462240 gnorm: 0.000023294497 xtb: 6.2.2 (655bc02)   !mtd8
C          -1.56802048369478   -0.56222247501619    0.13225794462492
C          -0.69309129825841    0.60058286612001   -0.32263455384646
C           0.69327431246316    0.60003561384970    0.32325558515939
C           1.56784445993566   -0.56263943619145   -0.13269600943592
H           1.14571112122765   -1.51439543496947    0.17861718616276
H           1.66203433634369   -0.56465048801452   -1.21665301813621
H           2.56311483499981   -0.47717209459497    0.29771075530122
H           1.19503550487308    1.53768525650790    0.07141466707080
H           0.58288390196208    0.56663372349798    1.40971088360362
H          -0.58268280405343    0.56810964252037   -1.40911842119107
H          -1.19456787559707    1.53816671607842   -0.06997071941441
H          -1.14539025180221   -1.51389684095181   -0.17861839053968
H          -2.56279018344156   -0.47684296739234   -0.29931672761433
H          -1.66347992495765   -0.56431544144362    1.21610168825538
